# generated using pymatgen
data_Li2TiO3
_symmetry_space_group_name_H-M   'P 1'
_cell_length_a   5.03823200
_cell_length_b   5.08712447
_cell_length_c   7.64747747
_cell_angle_alpha   70.28361683
_cell_angle_beta   72.19973214
_cell_angle_gamma   61.88849638
_symmetry_Int_Tables_number   1
_chemical_formula_structural   Li2TiO3
_chemical_formula_sum   'Li6 Ti3 O9'
_cell_volume   160.18636660
_cell_formula_units_Z   3
loop_
 _symmetry_equiv_pos_site_id
 _symmetry_equiv_pos_as_xyz
  1  'x, y, z'
loop_
 _atom_type_symbol
 _atom_type_oxidation_number
  Li+  1.0
  Ti4+  4.0
  O2-  -2.0
loop_
 _atom_site_type_symbol
 _atom_site_label
 _atom_site_symmetry_multiplicity
 _atom_site_fract_x
 _atom_site_fract_y
 _atom_site_fract_z
 _atom_site_occupancy
  Li+  Li0  1  0.16856600  0.14896100  0.50256500  1
  Li+  Li1  1  0.60791400  0.93461500  0.16794000  1
  Li+  Li2  1  0.39208600  0.06538500  0.83206000  1
  Li+  Li3  1  0.83143400  0.85103900  0.49743500  1
  Li+  Li4  1  0.28273200  0.61594400  0.16555700  1
  Li+  Li5  1  0.71726800  0.38405600  0.83444300  1
  Ti4+  Ti6  1  0.03803700  0.71989700  0.83338500  1
  Ti4+  Ti7  1  0.50000000  0.50000000  0.50000000  1
  Ti4+  Ti8  1  0.96196300  0.28010300  0.16661500  1
  O2-  O9  1  0.13524100  0.41909000  0.65951400  1
  O2-  O10  1  0.86475900  0.58091000  0.34048600  1
  O2-  O11  1  0.22934000  0.90188700  0.32714900  1
  O2-  O12  1  0.57912600  0.19280800  0.33040300  1
  O2-  O13  1  0.29035200  0.33526100  0.00818500  1
  O2-  O14  1  0.00000000  0.00000000  0.00000000  1
  O2-  O15  1  0.70964800  0.66473900  0.99181500  1
  O2-  O16  1  0.42087400  0.80719200  0.66959700  1
  O2-  O17  1  0.77066000  0.09811300  0.67285100  1
